minlp-notes/research-20261001/scip-set-selection/logs/root/powerflow0039r.eff.s0.log
SCIP version 10.0.3 [precision: 8 byte] [memory: block] [mode: optimized] [LP solver: SoPlex 8.0.3] [GitHash: d409edf9f6]
Copyright (c) 2002-2026 Zuse Institute Berlin (ZIB)

External libraries: 
  Readline 8.3         GNU library for command line editing (gnu.org/s/readline)
  SoPlex 8.0.3         Linear programming solver developed at Zuse Institute Berlin (soplex.zib.de) [GitHash: 13e2ab24]
  CppAD 20180000.0     Algorithmic Differentiation of C++ algorithms developed by B. Bell (github.com/coin-or/CppAD)
  ZLIB 1.3.2           General purpose compression library by J. Gailly and M. Adler (zlib.net)
  LAPACK 3.12.0        General Linear Algebra PACKage (http://www.netlib.org/lapack/)
  MPFR 4.2.2           GNU Multiple Precision Floating-Point Reliable Library (mpfr.org)
  Boost 1.85.0         Boost C++ Libraries (boost.org)
  TinyCThread 1.2      small portable implementation of the C11 threads API (tinycthread.github.io)
  GMP 6.3.0            GNU Multiple Precision Arithmetic Library developed by T. Granlund (gmplib.org)
  AMPL/MP 4.0.4        AMPL .nl file reader library (github.com/ampl/mp)
  Nauty 2.8.8          Computing Graph Automorphism Groups by Brendan D. McKay (users.cecs.anu.edu.au/~bdm/nauty)
  sassy 2.1            Symmetry preprocessor by Markus Anders (github.com/markusa4/sassy)

user parameter file <scip.set> not found - using default parameters

table/nlhdlr_quadratic/active = TRUE
limits/memory = 6000
limits/time = 120
timing/clocktype = 1
nlhdlr/quadratic/useintersectioncuts = TRUE
nlhdlr/quadratic/setrule = 2
limits/nodes = 1

read problem </workspace/local-home/.cache/minlplib/minlplib/osil/powerflow0039r.osil>
============

original problem has 284 variables (0 bin, 0 int, 284 cont) and 474 constraints

presolving:
(round 1, fast)       43 del vars, 90 del conss, 0 add conss, 548 chg bounds, 0 chg sides, 0 chg coeffs, 0 upgd conss, 0 impls, 0 clqs, 0 implints
(round 2, fast)       43 del vars, 90 del conss, 0 add conss, 551 chg bounds, 0 chg sides, 0 chg coeffs, 0 upgd conss, 0 impls, 0 clqs, 0 implints
   (0.0s) symmetry computation started: requiring (bin +, int +, cont +), (fixed: bin -, int -, cont -)
   (0.0s) no symmetry present (symcode time: 0.00)
presolving (3 rounds: 3 fast, 1 medium, 1 exhaustive):
 43 deleted vars, 90 deleted constraints, 0 added constraints, 551 tightened bounds, 0 added holes, 0 changed sides, 0 changed coefficients
 0 implications, 0 cliques, 0 implied integral variables (0 bin, 0 int, 0 cont)
presolved problem has 241 variables (0 bin, 0 int, 241 cont) and 345 constraints
     38 constraints of type <linear>
    307 constraints of type <nonlinear>
Presolving Time: 0.02

 time | node  | left  |LP iter|LP it/n|mem/heur|mdpt |vars |cons |rows |cuts |sepa|confs|strbr|  dualbound   | primalbound  |  gap   | compl. 
  0.1s|     1 |     0 |  1829 |     - |    11M |   0 | 961 | 345 |1207 |   0 |  0 |   0 |   0 | 2.579052e+04 |      --      |    Inf | unknown
  0.1s|     1 |     0 |  1843 |     - |    12M |   0 | 961 | 345 |1207 |   0 |  0 |   0 |   0 | 2.579052e+04 |      --      |    Inf | unknown
  0.3s|     1 |     0 |  2045 |     - |    14M |   0 | 961 | 345 |1338 | 131 |  1 |   0 |   0 | 2.669469e+04 |      --      |    Inf | unknown
  0.6s|     1 |     0 |  2342 |     - |    16M |   0 | 961 | 345 |1480 | 273 |  2 |   0 |   0 | 2.702692e+04 |      --      |    Inf | unknown
  0.6s|     1 |     0 |  2342 |     - |    16M |   0 | 961 | 345 |1480 | 273 |  2 |   0 |   0 | 2.702692e+04 |      --      |    Inf | unknown
  0.9s|     1 |     0 |  2549 |     - |    18M |   0 | 961 | 345 |1609 | 402 |  3 |   0 |   0 | 2.709785e+04 |      --      |    Inf | unknown
  1.3s|     1 |     0 |  2780 |     - |    19M |   0 | 961 | 345 |1735 | 528 |  4 |   0 |   0 | 2.711995e+04 |      --      |    Inf | unknown
  1.7s|     1 |     0 |  3027 |     - |    21M |   0 | 961 | 345 |1860 | 653 |  5 |   0 |   0 | 2.719943e+04 |      --      |    Inf | unknown
  2.2s|     1 |     0 |  3333 |     - |    24M |   0 | 961 | 345 |1977 | 770 |  6 |   0 |   0 | 2.723472e+04 |      --      |    Inf | unknown
  2.5s|     1 |     0 |  3682 |     - |    25M |   0 | 961 | 345 |2085 | 878 |  7 |   0 |   0 | 2.728708e+04 |      --      |    Inf | unknown
  2.8s|     1 |     0 |  4126 |     - |    26M |   0 | 961 | 345 |2180 | 973 |  8 |   0 |   0 | 2.736430e+04 |      --      |    Inf | unknown
  3.2s|     1 |     0 |  4722 |     - |    28M |   0 | 961 | 345 |2283 |1076 |  9 |   0 |   0 | 2.745787e+04 |      --      |    Inf | unknown
  3.5s|     1 |     0 |  5190 |     - |    28M |   0 | 961 | 345 |1848 |1177 | 10 |   0 |   0 | 2.754949e+04 |      --      |    Inf | unknown
  3.7s|     1 |     0 |  5677 |     - |    29M |   0 | 961 | 345 |1949 |1278 | 11 |   0 |   0 | 2.761992e+04 |      --      |    Inf | unknown
  4.2s|     1 |     0 |  6052 |     - |    29M |   0 | 961 | 345 |2037 |1366 | 12 |   0 |   0 | 2.766869e+04 |      --      |    Inf | unknown
 time | node  | left  |LP iter|LP it/n|mem/heur|mdpt |vars |cons |rows |cuts |sepa|confs|strbr|  dualbound   | primalbound  |  gap   | compl. 
  4.5s|     1 |     0 |  6439 |     - |    33M |   0 | 961 | 345 |2140 |1469 | 13 |   0 |   0 | 2.770814e+04 |      --      |    Inf | unknown
  4.7s|     1 |     0 |  6818 |     - |    33M |   0 | 961 | 345 |2245 |1574 | 14 |   0 |   0 | 2.784802e+04 |      --      |    Inf | unknown
  5.1s|     1 |     0 |  7250 |     - |    34M |   0 | 961 | 345 |2326 |1655 | 15 |   0 |   0 | 2.786644e+04 |      --      |    Inf | unknown
  5.5s|     1 |     0 |  8591 |     - |    35M |   0 | 961 | 345 |1884 |1737 | 16 |   0 |   0 | 2.796056e+04 |      --      |    Inf | unknown
  5.6s|     1 |     0 |  9221 |     - |    35M |   0 | 961 | 345 |1980 |1833 | 17 |   0 |   0 | 2.809676e+04 |      --      |    Inf | unknown
  6.0s|     1 |     0 |  9615 |     - |    36M |   0 | 961 | 345 |2068 |1921 | 18 |   0 |   0 | 2.817264e+04 |      --      |    Inf | unknown
  6.4s|     1 |     0 | 10062 |     - |    36M |   0 | 961 | 345 |2156 |2009 | 19 |   0 |   0 | 2.823103e+04 |      --      |    Inf | unknown
  6.8s|     1 |     0 | 10821 |     - |    36M |   0 | 961 | 345 |2243 |2096 | 20 |   0 |   0 | 2.829739e+04 |      --      |    Inf | unknown
  6.8s|     1 |     0 | 10821 |     - |    36M |   0 | 961 | 345 |2243 |2096 | 20 |   0 |   0 | 2.829739e+04 |      --      |    Inf | unknown
  7.3s|     1 |     0 | 11393 |     - |    39M |   0 | 961 | 345 |2328 |2181 | 21 |   0 |   0 | 2.833126e+04 |      --      |    Inf | unknown
  7.6s|     1 |     0 | 12449 |     - |    39M |   0 | 961 | 345 |1751 |2257 | 22 |   0 |   0 | 2.851506e+04 |      --      |    Inf | unknown
  7.9s|     1 |     0 | 12980 |     - |    39M |   0 | 961 | 345 |1829 |2335 | 23 |   0 |   0 | 2.857732e+04 |      --      |    Inf | unknown
  8.1s|     1 |     0 | 13566 |     - |    39M |   0 | 961 | 345 |1902 |2408 | 24 |   0 |   0 | 2.862593e+04 |      --      |    Inf | unknown
  8.3s|     1 |     0 | 14033 |     - |    39M |   0 | 961 | 345 |1974 |2480 | 25 |   0 |   0 | 2.866908e+04 |      --      |    Inf | unknown
  8.4s|     1 |     0 | 15824 |     - |    39M |   0 | 961 | 345 |2054 |2560 | 26 |   0 |   0 | 2.906790e+04 |      --      |    Inf | unknown
 time | node  | left  |LP iter|LP it/n|mem/heur|mdpt |vars |cons |rows |cuts |sepa|confs|strbr|  dualbound   | primalbound  |  gap   | compl. 
  8.5s|     1 |     0 | 16384 |     - |    39M |   0 | 961 | 345 |2133 |2639 | 27 |   0 |   0 | 2.917013e+04 |      --      |    Inf | unknown
  8.6s|     1 |     0 | 18160 |     - |    39M |   0 | 961 | 345 |1607 |2709 | 28 |   0 |   0 | 2.991137e+04 |      --      |    Inf | unknown
  8.6s|     1 |     0 | 18160 |     - |    39M |   0 | 961 | 345 |1607 |2709 | 28 |   0 |   0 | 2.991137e+04 |      --      |    Inf | unknown
  8.7s|     1 |     0 | 18717 |     - |    39M |   0 | 961 | 345 |1680 |2782 | 29 |   0 |   0 | 3.009639e+04 |      --      |    Inf | unknown
  8.7s|     1 |     0 | 19085 |     - |    39M |   0 | 961 | 345 |1764 |2866 | 30 |   0 |   0 | 3.018586e+04 |      --      |    Inf | unknown
  8.8s|     1 |     0 | 19989 |     - |    39M |   0 | 961 | 345 |1837 |2939 | 31 |   0 |   0 | 3.029661e+04 |      --      |    Inf | unknown
  8.8s|     1 |     0 | 20814 |     - |    39M |   0 | 961 | 345 |1914 |3016 | 32 |   0 |   0 | 3.047220e+04 |      --      |    Inf | unknown
  8.9s|     1 |     0 | 21630 |     - |    39M |   0 | 961 | 345 |1993 |3095 | 33 |   0 |   0 | 3.059424e+04 |      --      |    Inf | unknown
  9.0s|     1 |     0 | 22723 |     - |    39M |   0 | 961 | 345 |1534 |3163 | 34 |   0 |   0 | 3.098089e+04 |      --      |    Inf | unknown
  9.1s|     1 |     0 | 23268 |     - |    39M |   0 | 961 | 345 |1607 |3236 | 35 |   0 |   0 | 3.167455e+04 |      --      |    Inf | unknown
  9.1s|     1 |     0 | 23268 |     - |    39M |   0 | 961 | 345 |1607 |3236 | 35 |   0 |   0 | 3.167455e+04 |      --      |    Inf | unknown
  9.2s|     1 |     0 | 24044 |     - |    39M |   0 | 961 | 345 |1678 |3307 | 36 |   0 |   0 | 3.185628e+04 |      --      |    Inf | unknown
  9.3s|     1 |     0 | 25567 |     - |    39M |   0 | 961 | 345 |1753 |3382 | 37 |   0 |   0 | 3.231417e+04 |      --      |    Inf | unknown
  9.3s|     1 |     0 | 26420 |     - |    39M |   0 | 961 | 345 |1823 |3452 | 38 |   0 |   0 | 3.250315e+04 |      --      |    Inf | unknown
  9.4s|     1 |     0 | 26949 |     - |    39M |   0 | 961 | 345 |1901 |3530 | 39 |   0 |   0 | 3.263624e+04 |      --      |    Inf | unknown
 time | node  | left  |LP iter|LP it/n|mem/heur|mdpt |vars |cons |rows |cuts |sepa|confs|strbr|  dualbound   | primalbound  |  gap   | compl. 
  9.5s|     1 |     0 | 27694 |     - |    39M |   0 | 961 | 345 |1445 |3597 | 40 |   0 |   0 | 3.305984e+04 |      --      |    Inf | unknown
  9.5s|     1 |     0 | 27925 |     - |    39M |   0 | 961 | 345 |1515 |3667 | 41 |   0 |   0 | 3.309789e+04 |      --      |    Inf | unknown
  9.6s|     1 |     0 | 29423 |     - |    39M |   0 | 961 | 345 |1580 |3732 | 42 |   0 |   0 | 3.471001e+04 |      --      |    Inf | unknown
  9.6s|     1 |     0 | 29423 |     - |    39M |   0 | 961 | 345 |1580 |3732 | 42 |   0 |   0 | 3.471001e+04 |      --      |    Inf | unknown
  9.6s|     1 |     0 | 29836 |     - |    39M |   0 | 961 | 345 |1653 |3805 | 43 |   0 |   0 | 3.509258e+04 |      --      |    Inf | unknown
  9.7s|     1 |     0 | 30544 |     - |    39M |   0 | 961 | 345 |1724 |3876 | 44 |   0 |   0 | 3.537400e+04 |      --      |    Inf | unknown
  9.7s|     1 |     0 | 31387 |     - |    39M |   0 | 961 | 345 |1793 |3945 | 45 |   0 |   0 | 3.559756e+04 |      --      |    Inf | unknown
  9.8s|     1 |     0 | 31788 |     - |    39M |   0 | 961 | 345 |1386 |4011 | 46 |   0 |   0 | 3.571645e+04 |      --      |    Inf | unknown
  9.8s|     1 |     0 | 32665 |     - |    39M |   0 | 961 | 345 |1451 |4076 | 47 |   0 |   0 | 3.633983e+04 |      --      |    Inf | unknown
  9.8s|     1 |     0 | 32665 |     - |    39M |   0 | 961 | 345 |1451 |4076 | 47 |   0 |   0 | 3.633983e+04 |      --      |    Inf | unknown
  9.8s|     1 |     0 | 32938 |     - |    39M |   0 | 961 | 345 |1519 |4144 | 48 |   0 |   0 | 3.643094e+04 |      --      |    Inf | unknown
 10.0s|     1 |     0 | 35434 |     - |    39M |   0 | 961 | 345 |1585 |4210 | 49 |   0 |   0 | 3.775297e+04 |      --      |    Inf | unknown
 10.0s|     1 |     0 | 35721 |     - |    39M |   0 | 961 | 345 |1648 |4273 | 50 |   0 |   0 | 3.777318e+04 |      --      |    Inf | unknown
 10.1s|     1 |     0 | 36636 |     - |    39M |   0 | 961 | 345 |1705 |4330 | 51 |   0 |   0 | 3.782337e+04 |      --      |    Inf | unknown
 10.1s|     1 |     0 | 37255 |     - |    39M |   0 | 961 | 345 |1312 |4385 | 52 |   0 |   0 | 3.790214e+04 |      --      |    Inf | unknown
 time | node  | left  |LP iter|LP it/n|mem/heur|mdpt |vars |cons |rows |cuts |sepa|confs|strbr|  dualbound   | primalbound  |  gap   | compl. 
 10.1s|     1 |     0 | 37742 |     - |    39M |   0 | 961 | 345 |1374 |4447 | 53 |   0 |   0 | 3.794474e+04 |      --      |    Inf | unknown
 10.2s|     1 |     0 | 39029 |     - |    39M |   0 | 961 | 345 |1435 |4508 | 54 |   0 |   0 | 3.801704e+04 |      --      |    Inf | unknown
 10.3s|     1 |     0 | 40055 |     - |    39M |   0 | 961 | 345 |1499 |4572 | 55 |   0 |   0 | 3.815010e+04 |      --      |    Inf | unknown
 10.3s|     1 |     0 | 40055 |     - |    39M |   0 | 961 | 345 |1499 |4572 | 55 |   0 |   0 | 3.815010e+04 |      --      |    Inf | unknown
 10.3s|     1 |     0 | 41046 |     - |    39M |   0 | 961 | 345 |1562 |4635 | 56 |   0 |   0 | 3.822014e+04 |      --      |    Inf | unknown
 10.4s|     1 |     0 | 42220 |     - |    39M |   0 | 961 | 345 |1616 |4689 | 57 |   0 |   0 | 3.826624e+04 |      --      |    Inf | unknown
 10.5s|     1 |     0 | 43227 |     - |    39M |   0 | 961 | 345 |1304 |4741 | 58 |   0 |   0 | 3.841292e+04 |      --      |    Inf | unknown
 10.5s|     1 |     0 | 43470 |     - |    39M |   0 | 961 | 345 |1356 |4793 | 59 |   0 |   0 | 3.857771e+04 |      --      |    Inf | unknown
 10.5s|     1 |     0 | 43708 |     - |    39M |   0 | 961 | 345 |1413 |4850 | 60 |   0 |   0 | 3.858624e+04 |      --      |    Inf | unknown
 10.6s|     1 |     0 | 44194 |     - |    39M |   0 | 961 | 345 |1466 |4903 | 61 |   0 |   0 | 3.863220e+04 |      --      |    Inf | unknown
 10.6s|     1 |     0 | 44315 |     - |    39M |   0 | 961 | 345 |1527 |4964 | 62 |   0 |   0 | 3.864262e+04 |      --      |    Inf | unknown
 10.6s|     1 |     0 | 44862 |     - |    39M |   0 | 961 | 345 |1584 |5021 | 63 |   0 |   0 | 3.875419e+04 |      --      |    Inf | unknown
 10.6s|     1 |     0 | 45159 |     - |    39M |   0 | 961 | 345 |1270 |5078 | 64 |   0 |   0 | 3.876322e+04 |      --      |    Inf | unknown
 10.7s|     1 |     0 | 45725 |     - |    39M |   0 | 961 | 345 |1323 |5131 | 65 |   0 |   0 | 3.879531e+04 |      --      |    Inf | unknown
 10.7s|     1 |     0 | 46571 |     - |    39M |   0 | 961 | 345 |1377 |5185 | 66 |   0 |   0 | 3.884400e+04 |      --      |    Inf | unknown
 time | node  | left  |LP iter|LP it/n|mem/heur|mdpt |vars |cons |rows |cuts |sepa|confs|strbr|  dualbound   | primalbound  |  gap   | compl. 
 10.8s|     1 |     0 | 49333 |     - |    39M |   0 | 961 | 345 |1433 |5241 | 67 |   0 |   0 | 3.928718e+04 |      --      |    Inf | unknown
 10.9s|     1 |     0 | 49457 |     - |    39M |   0 | 961 | 345 |1497 |5305 | 68 |   0 |   0 | 3.930328e+04 |      --      |    Inf | unknown
 10.9s|     1 |     0 | 50232 |     - |    39M |   0 | 961 | 345 |1554 |5362 | 69 |   0 |   0 | 3.933579e+04 |      --      |    Inf | unknown
 10.9s|     1 |     0 | 50476 |     - |    39M |   0 | 961 | 345 |1243 |5418 | 70 |   0 |   0 | 3.936141e+04 |      --      |    Inf | unknown
 10.9s|     1 |     0 | 50777 |     - |    39M |   0 | 961 | 345 |1294 |5469 | 71 |   0 |   0 | 3.940269e+04 |      --      |    Inf | unknown
 11.0s|     1 |     0 | 51205 |     - |    39M |   0 | 961 | 345 |1349 |5524 | 72 |   0 |   0 | 3.945409e+04 |      --      |    Inf | unknown
 11.0s|     1 |     0 | 51481 |     - |    39M |   0 | 961 | 345 |1403 |5578 | 73 |   0 |   0 | 3.947723e+04 |      --      |    Inf | unknown
 11.0s|     1 |     0 | 51761 |     - |    39M |   0 | 961 | 345 |1459 |5634 | 74 |   0 |   0 | 3.950526e+04 |      --      |    Inf | unknown
 11.0s|     1 |     0 | 51889 |     - |    39M |   0 | 961 | 345 |1513 |5688 | 75 |   0 |   0 | 3.951397e+04 |      --      |    Inf | unknown
 11.1s|     1 |     0 | 52734 |     - |    39M |   0 | 961 | 345 |1248 |5744 | 76 |   0 |   0 | 3.956692e+04 |      --      |    Inf | unknown
 11.1s|     1 |     0 | 53241 |     - |    39M |   0 | 961 | 345 |1295 |5791 | 77 |   0 |   0 | 3.959369e+04 |      --      |    Inf | unknown
 11.1s|     1 |     0 | 53455 |     - |    39M |   0 | 961 | 345 |1344 |5840 | 78 |   0 |   0 | 3.961325e+04 |      --      |    Inf | unknown
 11.3s|     1 |     0 | 55724 |     - |    39M |   0 | 961 | 345 |1389 |5885 | 79 |   0 |   0 | 4.040882e+04 |      --      |    Inf | unknown
 11.3s|     1 |     0 | 55724 |     - |    39M |   0 | 961 | 345 |1389 |5885 | 79 |   0 |   0 | 4.040882e+04 |      --      |    Inf | unknown
 11.3s|     1 |     0 | 56485 |     - |    39M |   0 | 961 | 345 |1438 |5934 | 80 |   0 |   0 | 4.042984e+04 |      --      |    Inf | unknown
 time | node  | left  |LP iter|LP it/n|mem/heur|mdpt |vars |cons |rows |cuts |sepa|confs|strbr|  dualbound   | primalbound  |  gap   | compl. 
 11.3s|     1 |     0 | 56692 |     - |    39M |   0 | 961 | 345 |1490 |5986 | 81 |   0 |   0 | 4.044460e+04 |      --      |    Inf | unknown
 11.4s|     1 |     0 | 57365 |     - |    39M |   0 | 961 | 345 |1183 |6035 | 82 |   0 |   0 | 4.045506e+04 |      --      |    Inf | unknown
 11.4s|     1 |     0 | 57874 |     - |    39M |   0 | 961 | 345 |1230 |6082 | 83 |   0 |   0 | 4.048470e+04 |      --      |    Inf | unknown
 11.4s|     1 |     0 | 58274 |     - |    39M |   0 | 961 | 345 |1283 |6135 | 84 |   0 |   0 | 4.052429e+04 |      --      |    Inf | unknown
 11.4s|     1 |     0 | 58376 |     - |    39M |   0 | 961 | 345 |1330 |6182 | 85 |   0 |   0 | 4.052660e+04 |      --      |    Inf | unknown
 11.5s|     1 |     0 | 59148 |     - |    39M |   0 | 961 | 345 |1374 |6226 | 86 |   0 |   0 | 4.054893e+04 |      --      |    Inf | unknown
 11.5s|     1 |     0 | 60534 |     - |    39M |   0 | 961 | 345 |1411 |6263 | 87 |   0 |   0 | 4.062355e+04 |      --      |    Inf | unknown
 11.6s|     1 |     0 | 61636 |     - |    39M |   0 | 961 | 345 |1149 |6316 | 88 |   0 |   0 | 4.065562e+04 |      --      |    Inf | unknown
 11.6s|     1 |     0 | 62135 |     - |    39M |   0 | 961 | 345 |1199 |6366 | 89 |   0 |   0 | 4.066188e+04 |      --      |    Inf | unknown
 11.7s|     1 |     0 | 62794 |     - |    39M |   0 | 961 | 345 |1244 |6411 | 90 |   0 |   0 | 4.073278e+04 |      --      |    Inf | unknown
 11.7s|     1 |     0 | 63291 |     - |    39M |   0 | 961 | 345 |1304 |6471 | 91 |   0 |   0 | 4.073639e+04 |      --      |    Inf | unknown
 11.7s|     1 |     0 | 63560 |     - |    39M |   0 | 961 | 345 |1354 |6521 | 92 |   0 |   0 | 4.075065e+04 |      --      |    Inf | unknown
 11.7s|     1 |     0 | 63781 |     - |    39M |   0 | 961 | 345 |1412 |6579 | 93 |   0 |   0 | 4.077350e+04 |      --      |    Inf | unknown
 11.8s|     1 |     0 | 64317 |     - |    39M |   0 | 961 | 345 |1146 |6632 | 94 |   0 |   0 | 4.078683e+04 |      --      |    Inf | unknown
 11.8s|     1 |     0 | 64487 |     - |    39M |   0 | 961 | 345 |1189 |6675 | 95 |   0 |   0 | 4.079080e+04 |      --      |    Inf | unknown
 time | node  | left  |LP iter|LP it/n|mem/heur|mdpt |vars |cons |rows |cuts |sepa|confs|strbr|  dualbound   | primalbound  |  gap   | compl. 
 11.8s|     1 |     0 | 64767 |     - |    39M |   0 | 961 | 345 |1242 |6728 | 96 |   0 |   0 | 4.079862e+04 |      --      |    Inf | unknown
 11.8s|     1 |     0 | 65083 |     - |    39M |   0 | 961 | 345 |1282 |6768 | 97 |   0 |   0 | 4.082002e+04 |      --      |    Inf | unknown
 11.8s|     1 |     0 | 65215 |     - |    39M |   0 | 961 | 345 |1326 |6812 | 98 |   0 |   0 | 4.083883e+04 |      --      |    Inf | unknown
 11.9s|     1 |     0 | 65921 |     - |    39M |   0 | 961 | 345 |1364 |6850 | 99 |   0 |   0 | 4.089383e+04 |      --      |    Inf | unknown
 11.9s|     1 |     0 | 66858 |     - |    39M |   0 | 961 | 345 |1141 |6901 |100 |   0 |   0 | 4.091647e+04 |      --      |    Inf | unknown
 11.9s|     1 |     0 | 67063 |     - |    39M |   0 | 961 | 345 |1189 |6949 |101 |   0 |   0 | 4.091922e+04 |      --      |    Inf | unknown
 11.9s|     1 |     0 | 67265 |     - |    39M |   0 | 961 | 345 |1230 |6990 |102 |   0 |   0 | 4.092921e+04 |      --      |    Inf | unknown
 12.0s|     1 |     0 | 68054 |     - |    39M |   0 | 961 | 345 |1273 |7033 |103 |   0 |   0 | 4.096716e+04 |      --      |    Inf | unknown
 12.0s|     1 |     0 | 68698 |     - |    39M |   0 | 961 | 345 |1311 |7071 |104 |   0 |   0 | 4.100102e+04 |      --      |    Inf | unknown
 12.0s|     1 |     0 | 68762 |     - |    39M |   0 | 961 | 345 |1371 |7131 |105 |   0 |   0 | 4.100239e+04 |      --      |    Inf | unknown
 12.0s|     1 |     0 | 68857 |     - |    39M |   0 | 961 | 345 |1100 |7174 |106 |   0 |   0 | 4.101219e+04 |      --      |    Inf | unknown
 12.1s|     1 |     0 | 69037 |     - |    39M |   0 | 961 | 345 |1143 |7217 |107 |   0 |   0 | 4.103003e+04 |      --      |    Inf | unknown
 12.1s|     1 |     0 | 69329 |     - |    39M |   0 | 961 | 345 |1193 |7267 |108 |   0 |   0 | 4.103111e+04 |      --      |    Inf | unknown
 12.1s|     1 |     0 | 69395 |     - |    39M |   0 | 961 | 345 |1238 |7312 |109 |   0 |   0 | 4.103194e+04 |      --      |    Inf | unknown
 12.1s|     1 |     0 | 69952 |     - |    39M |   0 | 961 | 345 |1274 |7348 |110 |   0 |   0 | 4.104731e+04 |      --      |    Inf | unknown
 time | node  | left  |LP iter|LP it/n|mem/heur|mdpt |vars |cons |rows |cuts |sepa|confs|strbr|  dualbound   | primalbound  |  gap   | compl. 
 12.1s|     1 |     0 | 70010 |     - |    39M |   0 | 961 | 345 |1315 |7389 |111 |   0 |   0 | 4.104758e+04 |      --      |    Inf | unknown
 12.1s|     1 |     0 | 70217 |     - |    39M |   0 | 961 | 345 |1062 |7412 |112 |   0 |   0 | 4.105134e+04 |      --      |    Inf | unknown
 12.1s|     1 |     0 | 70257 |     - |    39M |   0 | 961 | 345 |1102 |7452 |113 |   0 |   0 | 4.105134e+04 |      --      |    Inf | unknown
 12.2s|     1 |     0 | 70323 |     - |    39M |   0 | 961 | 345 |1120 |7470 |114 |   0 |   0 | 4.105596e+04 |      --      |    Inf | unknown
 12.2s|     1 |     0 | 70545 |     - |    39M |   0 | 961 | 345 |1153 |7503 |115 |   0 |   0 | 4.107785e+04 |      --      |    Inf | unknown
 12.2s|     1 |     0 | 70763 |     - |    39M |   0 | 961 | 345 |1214 |7564 |116 |   0 |   0 | 4.107889e+04 |      --      |    Inf | unknown
 12.2s|     1 |     0 | 71141 |     - |    39M |   0 | 961 | 345 |1256 |7606 |117 |   0 |   0 | 4.108315e+04 |      --      |    Inf | unknown
 12.2s|     1 |     0 | 71544 |     - |    39M |   0 | 961 | 345 |1026 |7646 |118 |   0 |   0 | 4.108436e+04 |      --      |    Inf | unknown
 12.3s|     1 |     0 | 71592 |     - |    39M |   0 | 961 | 345 |1064 |7684 |119 |   0 |   0 | 4.108442e+04 |      --      |    Inf | unknown
 12.3s|     1 |     0 | 71778 |     - |    39M |   0 | 961 | 345 |1087 |7707 |120 |   0 |   0 | 4.109566e+04 |      --      |    Inf | unknown
 12.3s|     1 |     0 | 71954 |     - |    39M |   0 | 961 | 345 |1126 |7746 |121 |   0 |   0 | 4.109688e+04 |      --      |    Inf | unknown
 12.3s|     1 |     0 | 72190 |     - |    39M |   0 | 961 | 345 |1168 |7788 |122 |   0 |   0 | 4.109733e+04 |      --      |    Inf | unknown
 12.3s|     1 |     0 | 72897 |     - |    39M |   0 | 961 | 345 |1207 |7827 |123 |   0 |   0 | 4.110230e+04 |      --      |    Inf | unknown
 12.4s|     1 |     0 | 73154 |     - |    39M |   0 | 961 | 345 |1058 |7866 |124 |   0 |   0 | 4.110288e+04 |      --      |    Inf | unknown
 12.4s|     1 |     0 | 73233 |     - |    39M |   0 | 961 | 345 |1096 |7904 |125 |   0 |   0 | 4.110550e+04 |      --      |    Inf | unknown
 time | node  | left  |LP iter|LP it/n|mem/heur|mdpt |vars |cons |rows |cuts |sepa|confs|strbr|  dualbound   | primalbound  |  gap   | compl. 
 12.4s|     1 |     0 | 73281 |     - |    39M |   0 | 961 | 345 |1134 |7942 |126 |   0 |   0 | 4.110561e+04 |      --      |    Inf | unknown
 12.4s|     1 |     0 | 73541 |     - |    39M |   0 | 961 | 345 |1168 |7976 |127 |   0 |   0 | 4.110863e+04 |      --      |    Inf | unknown
 12.4s|     1 |     0 | 74003 |     - |    39M |   0 | 961 | 345 |1205 |8013 |128 |   0 |   0 | 4.111137e+04 |      --      |    Inf | unknown
 12.5s|     1 |     0 | 74223 |     - |    39M |   0 | 961 | 345 |1250 |8058 |129 |   0 |   0 | 4.111147e+04 |      --      |    Inf | unknown
 12.5s|     1 |     0 | 75645 |     - |    39M |   0 | 961 | 345 |1055 |8097 |130 |   0 |   0 | 4.112470e+04 |      --      |    Inf | unknown
 12.5s|     1 |     0 | 75805 |     - |    39M |   0 | 961 | 345 |1113 |8155 |131 |   0 |   0 | 4.112668e+04 |      --      |    Inf | unknown
 12.6s|     1 |     0 | 76235 |     - |    39M |   0 | 961 | 345 |1159 |8201 |132 |   0 |   0 | 4.112799e+04 |      --      |    Inf | unknown
 12.6s|     1 |     0 | 76648 |     - |    39M |   0 | 961 | 345 |1199 |8241 |133 |   0 |   0 | 4.112934e+04 |      --      |    Inf | unknown
 12.6s|     1 |     0 | 76776 |     - |    39M |   0 | 961 | 345 |1234 |8276 |134 |   0 |   0 | 4.112950e+04 |      --      |    Inf | unknown
 12.6s|     1 |     0 | 76981 |     - |    39M |   0 | 961 | 345 |1273 |8315 |135 |   0 |   0 | 4.112981e+04 |      --      |    Inf | unknown
 12.6s|     1 |     0 | 77165 |     - |    39M |   0 | 961 | 345 |1062 |8346 |136 |   0 |   0 | 4.113045e+04 |      --      |    Inf | unknown
 12.6s|     1 |     0 | 77199 |     - |    39M |   0 | 961 | 345 |1096 |8380 |137 |   0 |   0 | 4.113045e+04 |      --      |    Inf | unknown
 12.6s|     1 |     0 | 77305 |     - |    39M |   0 | 961 | 345 |1113 |8397 |138 |   0 |   0 | 4.113183e+04 |      --      |    Inf | unknown
 12.7s|     1 |     0 | 77343 |     - |    39M |   0 | 961 | 345 |1151 |8435 |139 |   0 |   0 | 4.113183e+04 |      --      |    Inf | unknown
 12.7s|     1 |     0 | 78077 |     - |    39M |   0 | 961 | 345 |1172 |8456 |140 |   0 |   0 | 4.113870e+04 |      --      |    Inf | unknown
 time | node  | left  |LP iter|LP it/n|mem/heur|mdpt |vars |cons |rows |cuts |sepa|confs|strbr|  dualbound   | primalbound  |  gap   | compl. 
 12.7s|     1 |     0 | 78541 |     - |    39M |   0 | 961 | 345 |1223 |8507 |141 |   0 |   0 | 4.114008e+04 |      --      |    Inf | unknown
 12.7s|     1 |     0 | 78581 |     - |    39M |   0 | 961 | 345 | 998 |8547 |142 |   0 |   0 | 4.114008e+04 |      --      |    Inf | unknown
 12.8s|     1 |     0 | 78729 |     - |    39M |   0 | 961 | 345 |1020 |8569 |143 |   0 |   0 | 4.114402e+04 |      --      |    Inf | unknown
 12.8s|     1 |     0 | 78767 |     - |    39M |   0 | 961 | 345 |1058 |8607 |144 |   0 |   0 | 4.114402e+04 |      --      |    Inf | unknown
 12.8s|     1 |     0 | 78894 |     - |    39M |   0 | 961 | 345 |1077 |8626 |145 |   0 |   0 | 4.114526e+04 |      --      |    Inf | unknown
 12.8s|     1 |     0 | 78965 |     - |    39M |   0 | 961 | 345 |1121 |8670 |146 |   0 |   0 | 4.114544e+04 |      --      |    Inf | unknown
 12.8s|     1 |     0 | 79127 |     - |    39M |   0 | 961 | 345 |1165 |8714 |147 |   0 |   0 | 4.114619e+04 |      --      |    Inf | unknown
 12.8s|     1 |     0 | 79185 |     - |    39M |   0 | 961 | 345 | 999 |8753 |148 |   0 |   0 | 4.114621e+04 |      --      |    Inf | unknown
 12.8s|     1 |     0 | 79294 |     - |    39M |   0 | 961 | 345 |1031 |8785 |149 |   0 |   0 | 4.114681e+04 |      --      |    Inf | unknown
 12.8s|     1 |     0 | 79338 |     - |    39M |   0 | 961 | 345 |1065 |8819 |150 |   0 |   0 | 4.114692e+04 |      --      |    Inf | unknown
 28.8s|     1 |     0 |255881 |     - |    39M |   0 | 961 | 345 |1065 |8819 |150 |   0 |   0 | 4.114692e+04 |      --      |    Inf | unknown
 28.8s|     1 |     0 |255912 |     - |    39M |   0 | 961 | 345 |1105 |8859 |151 |   0 |   0 | 4.114692e+04 |      --      |    Inf | unknown
 28.8s|     1 |     0 |255944 |     - |    39M |   0 | 961 | 345 |1140 |8894 |152 |   0 |   0 | 4.114692e+04 |      --      |    Inf | unknown
 28.8s|     1 |     0 |255976 |     - |    39M |   0 | 961 | 345 | 891 |8929 |153 |   0 |   0 | 4.114692e+04 |      --      |    Inf | unknown
 28.8s|     1 |     0 |255999 |     - |    39M |   0 | 961 | 345 | 916 |8954 |154 |   0 |   0 | 4.114692e+04 |      --      |    Inf | unknown
 time | node  | left  |LP iter|LP it/n|mem/heur|mdpt |vars |cons |rows |cuts |sepa|confs|strbr|  dualbound   | primalbound  |  gap   | compl. 
 28.8s|     1 |     0 |256080 |     - |    39M |   0 | 961 | 345 | 934 |8972 |155 |   0 |   0 | 4.114859e+04 |      --      |    Inf | unknown
 28.8s|     1 |     0 |256137 |     - |    39M |   0 | 961 | 345 | 976 |9014 |156 |   0 |   0 | 4.114870e+04 |      --      |    Inf | unknown
 28.8s|     1 |     0 |256256 |     - |    39M |   0 | 961 | 345 |1009 |9047 |157 |   0 |   0 | 4.114983e+04 |      --      |    Inf | unknown
 28.9s|     1 |     0 |256366 |     - |    39M |   0 | 961 | 345 |1049 |9087 |158 |   0 |   0 | 4.115182e+04 |      --      |    Inf | unknown
 28.9s|     1 |     0 |256531 |     - |    39M |   0 | 961 | 345 | 863 |9118 |159 |   0 |   0 | 4.115551e+04 |      --      |    Inf | unknown
 28.9s|     1 |     0 |256577 |     - |    39M |   0 | 961 | 345 | 906 |9161 |160 |   0 |   0 | 4.115564e+04 |      --      |    Inf | unknown
 28.9s|     1 |     0 |256719 |     - |    39M |   0 | 961 | 345 | 941 |9196 |161 |   0 |   0 | 4.116795e+04 |      --      |    Inf | unknown
 28.9s|     1 |     0 |256828 |     - |    39M |   0 | 961 | 345 | 988 |9243 |162 |   0 |   0 | 4.116956e+04 |      --      |    Inf | unknown
 28.9s|     1 |     0 |256871 |     - |    39M |   0 | 961 | 345 |1032 |9287 |163 |   0 |   0 | 4.116958e+04 |      --      |    Inf | unknown
 28.9s|     1 |     0 |256972 |     - |    39M |   0 | 961 | 345 |1057 |9312 |164 |   0 |   0 | 4.117201e+04 |      --      |    Inf | unknown
 28.9s|     1 |     0 |257111 |     - |    39M |   0 | 961 | 345 | 948 |9359 |165 |   0 |   0 | 4.117221e+04 |      --      |    Inf | unknown
 28.9s|     1 |     0 |257227 |     - |    39M |   0 | 961 | 345 | 985 |9396 |166 |   0 |   0 | 4.117641e+04 |      --      |    Inf | unknown
 29.0s|     1 |     0 |257384 |     - |    39M |   0 | 961 | 345 |1026 |9437 |167 |   0 |   0 | 4.117842e+04 |      --      |    Inf | unknown
 29.0s|     1 |     0 |257425 |     - |    39M |   0 | 961 | 345 |1066 |9477 |168 |   0 |   0 | 4.117843e+04 |      --      |    Inf | unknown
 29.0s|     1 |     0 |257550 |     - |    39M |   0 | 961 | 345 |1087 |9498 |169 |   0 |   0 | 4.117976e+04 |      --      |    Inf | unknown
 time | node  | left  |LP iter|LP it/n|mem/heur|mdpt |vars |cons |rows |cuts |sepa|confs|strbr|  dualbound   | primalbound  |  gap   | compl. 
 29.0s|     1 |     0 |257588 |     - |    39M |   0 | 961 | 345 |1124 |9535 |170 |   0 |   0 | 4.117976e+04 |      --      |    Inf | unknown
 29.0s|     1 |     0 |257720 |     - |    39M |   0 | 961 | 345 | 921 |9553 |171 |   0 |   0 | 4.118554e+04 |      --      |    Inf | unknown
 29.0s|     1 |     0 |258073 |     - |    39M |   0 | 961 | 345 | 948 |9580 |172 |   0 |   0 | 4.119879e+04 |      --      |    Inf | unknown
 29.0s|     1 |     0 |258193 |     - |    39M |   0 | 961 | 345 | 985 |9617 |173 |   0 |   0 | 4.119913e+04 |      --      |    Inf | unknown
 29.0s|     1 |     0 |258244 |     - |    39M |   0 | 961 | 345 |1025 |9657 |174 |   0 |   0 | 4.119925e+04 |      --      |    Inf | unknown
 29.0s|     1 |     0 |258375 |     - |    39M |   0 | 961 | 345 |1056 |9688 |175 |   0 |   0 | 4.119952e+04 |      --      |    Inf | unknown
 29.1s|     1 |     0 |258525 |     - |    39M |   0 | 961 | 345 |1092 |9724 |176 |   0 |   0 | 4.120072e+04 |      --      |    Inf | unknown
 29.1s|     1 |     0 |258610 |     - |    39M |   0 | 961 | 345 | 941 |9768 |177 |   0 |   0 | 4.120084e+04 |      --      |    Inf | unknown
 29.1s|     1 |     0 |258649 |     - |    39M |   0 | 961 | 345 | 979 |9806 |178 |   0 |   0 | 4.120084e+04 |      --      |    Inf | unknown
 29.1s|     1 |     0 |258678 |     - |    39M |   0 | 961 | 345 |1009 |9836 |179 |   0 |   0 | 4.120084e+04 |      --      |    Inf | unknown
 29.1s|     1 |     0 |258817 |     - |    39M |   0 | 961 | 345 |1030 |9857 |180 |   0 |   0 | 4.120103e+04 |      --      |    Inf | unknown
 29.1s|     1 |     0 |258855 |     - |    39M |   0 | 961 | 345 |1066 |9893 |181 |   0 |   0 | 4.120103e+04 |      --      |    Inf | unknown
 29.1s|     1 |     0 |258887 |     - |    39M |   0 | 961 | 345 |1088 |9915 |182 |   0 |   0 | 4.120111e+04 |      --      |    Inf | unknown
 29.2s|     1 |     0 |258903 |     - |    40M |   0 | 961 | 345 | 904 |9931 |182 |   0 |   0 | 4.120111e+04 |      --      |    Inf | unknown
 29.2s|     1 |     0 |259039 |     - |    40M |   0 | 961 | 345 | 918 |9945 |183 |   0 |   0 | 4.120333e+04 |      --      |    Inf | unknown
 time | node  | left  |LP iter|LP it/n|mem/heur|mdpt |vars |cons |rows |cuts |sepa|confs|strbr|  dualbound   | primalbound  |  gap   | compl. 
 29.2s|     1 |     0 |259059 |     - |    40M |   0 | 961 | 345 | 935 |9962 |184 |   0 |   0 | 4.120333e+04 |      --      |    Inf | unknown
 29.2s|     1 |     0 |259141 |     - |    40M |   0 | 961 | 345 | 971 |9998 |185 |   0 |   0 | 4.120349e+04 |      --      |    Inf | unknown
 29.2s|     1 |     0 |259154 |     - |    40M |   0 | 961 | 345 | 984 |  10k|186 |   0 |   0 | 4.120349e+04 |      --      |    Inf | unknown
 29.2s|     1 |     0 |259243 |     - |    40M |   0 | 961 | 345 |1016 |  10k|187 |   0 |   0 | 4.120352e+04 |      --      |    Inf | unknown
 29.2s|     1 |     0 |259253 |     - |    40M |   0 | 961 | 345 | 816 |  10k|188 |   0 |   0 | 4.120352e+04 |      --      |    Inf | unknown
 29.2s|     1 |     0 |259288 |     - |    40M |   0 | 961 | 345 | 845 |  10k|189 |   0 |   0 | 4.120353e+04 |      --      |    Inf | unknown
 29.2s|     1 |     0 |259298 |     - |    40M |   0 | 961 | 345 | 855 |  10k|190 |   0 |   0 | 4.120353e+04 |      --      |    Inf | unknown
 29.2s|     1 |     0 |259332 |     - |    40M |   0 | 961 | 345 | 879 |  10k|191 |   0 |   0 | 4.120356e+04 |      --      |    Inf | unknown
 29.2s|     1 |     0 |259339 |     - |    40M |   0 | 961 | 345 | 886 |  10k|192 |   0 |   0 | 4.120356e+04 |      --      |    Inf | unknown
 29.2s|     1 |     0 |259445 |     - |    40M |   0 | 961 | 345 | 905 |  10k|193 |   0 |   0 | 4.120534e+04 |      --      |    Inf | unknown
 29.2s|     1 |     0 |259456 |     - |    40M |   0 | 961 | 345 | 737 |  10k|194 |   0 |   0 | 4.120534e+04 |      --      |    Inf | unknown
 29.2s|     1 |     0 |259482 |     - |    40M |   0 | 961 | 345 | 764 |  10k|195 |   0 |   0 | 4.120534e+04 |      --      |    Inf | unknown
 29.2s|     1 |     2 |259482 |     - |    40M |   0 | 961 | 345 | 764 |  10k|196 |   0 |   0 | 4.120534e+04 |      --      |    Inf | unknown

SCIP Status        : solving was interrupted [node limit reached]
Solving Time (sec) : 29.24
Solving Nodes      : 1
Primal Bound       : +1.00000000000000e+20 (0 solutions)
Dual Bound         : +4.12053399631786e+04
Gap                : infinite


SCIP Status        : solving was interrupted [node limit reached]
Total Time         :      29.24
  solving          :      29.24
  presolving       :       0.02 (included in solving)
  reading          :       0.00
  copying          :       0.00 (1 #copies) (minimal 0.00, maximal 0.00, average 0.00)
Original Problem   :
  Problem name     : powerflow0039r
  Variables        : 284 (0 binary, 0 integer, 284 continuous)
  Implied int vars : 0 (0 binary, 0 integer, 0 continuous)
  Constraints      : 474 initial, 474 maximal
  Objective        : minimize, 12 non-zeros (abs.min = 1, abs.max = 30)
Presolved Problem  :
  Problem name     : t_powerflow0039r
  Variables        : 961 (0 binary, 0 integer, 961 continuous)
  Implied int vars : 0 (0 binary, 0 integer, 0 continuous)
  Constraints      : 345 initial, 345 maximal
  Objective        : minimize, 11 non-zeros (abs.min = 1, abs.max = 30)
  Nonzeros         : 1290 constraint, 0 clique table
Presolvers         :   ExecTime  SetupTime  Calls  FixedVars   AggrVars   ChgTypes  ChgBounds   AddHoles    DelCons    AddCons   ChgSides   ChgCoefs
  boundshift       :       0.00       0.00      0          0          0          0          0          0          0          0          0          0
  convertinttobin  :       0.00       0.00      0          0          0          0          0          0          0          0          0          0
  domcol           :       0.00       0.00      1          0          0          0          0          0          0          0          0          0
  dualagg          :       0.00       0.00      0          0          0          0          0          0          0          0          0          0
  dualcomp         :       0.00       0.00      1          0          0          0          0          0          0          0          0          0
  dualinfer        :       0.00       0.00      0          0          0          0          0          0          0          0          0          0
  dualsparsify     :       0.00       0.00      1          0          0          0          0          0          0          0          0          0
  gateextraction   :       0.00       0.00      0          0          0          0          0          0          0          0          0          0
  implics          :       0.00       0.00      1          0          0          0          0          0          0          0          0          0
  implint          :       0.00       0.00      0          0          0          0          0          0          0          0          0          0
  inttobinary      :       0.00       0.00      0          0          0          0          0          0          0          0          0          0
  qpkktref         :       0.00       0.00      0          0          0          0          0          0          0          0          0          0
  redvub           :       0.00       0.00      0          0          0          0          0          0          0          0          0          0
  sparsify         :       0.00       0.00      1          0          0          0          0          0          0          0          0          0
  stuffing         :       0.00       0.00      0          0          0          0          0          0          0          0          0          0
  trivial          :       0.00       0.00      3          1          0          0          0          0          0          0          0          0
  tworowbnd        :       0.00       0.00      0          0          0          0          0          0          0          0          0          0
  dualfix          :       0.00       0.00      3          0          0          0          0          0          0          0          0          0
  genvbounds       :       0.00       0.00      0          0          0          0          0          0          0          0          0          0
  probing          :       0.00       0.00      0          0          0          0          0          0          0          0          0          0
  pseudoobj        :       0.00       0.00      0          0          0          0          0          0          0          0          0          0
  symmetry         :       0.00       0.00      1          0          0          0          0          0          0          0          0          0
  vbounds          :       0.00       0.00      0          0          0          0          0          0          0          0          0          0
  linear           :       0.00       0.00      4          1         41          0         81          0         81          0          0          0
  nonlinear        :       0.02       0.01      5          0          0          0        470          0          9          0          0          0
  components       :       0.00       0.00      1          0          0          0          0          0          0          0          0          0
  root node        :          -          -      -          0          -          -        544          -          -          -          -          -
Constraints        :     Number  MaxNumber  #Separate #Propagate    #EnfoLP    #EnfoRelax  #EnfoPS    #Check   #ResProp    Cutoffs    DomReds       Cuts    Applied      Conss   Children
  integral         :          0          0          0          0          0          0          0          9          0          0          0          0          0          0          0
  linear           :         38         38        189        188          0          0          0          9          0          0          0          0          0          0          0
  nonlinear        :        307        307        189        188          8          0          0          1          0         32          4       9204       3837          0          2
  fixedvar         :          0          0          0          0          0          0          0          0          0          0          0          0          0          0          0
  countsols        :          0          0          0          0          0          0          0          0          0          0          0          0          0          0          0
  components       :          0          0          0          0          0          0          0          0          0          0          0          0          0          0          0
Constraint Timings :  TotalTime  SetupTime   Separate  Propagate     EnfoLP     EnfoPS     EnfoRelax   Check    ResProp    SB-Prop
  integral         :       0.00       0.00       0.00       0.00       0.00       0.00       0.00       0.00       0.00       0.00
  linear           :       0.00       0.00       0.00       0.00       0.00       0.00       0.00       0.00       0.00       0.00
  nonlinear        :       7.77       0.01       7.71       0.04       0.01       0.00       0.00       0.00       0.00       0.00
  fixedvar         :       0.00       0.00       0.00       0.00       0.00       0.00       0.00       0.00       0.00       0.00
  countsols        :       0.00       0.00       0.00       0.00       0.00       0.00       0.00       0.00       0.00       0.00
  components       :       0.00       0.00       0.00       0.00       0.00       0.00       0.00       0.00       0.00       0.00
Propagators        : #Propagate   #ResProp    Cutoffs    DomReds
  dualfix          :          3          0          0          0
  genvbounds       :         66          0          0          0
  nlobbt           :          0          0          0          0
  obbt             :         17          0          0          1
  probing          :          0          0          0          0
  pseudoobj        :          9          0          0          9
  redcost          :          0          0          0          0
  rootredcost      :          0          0          0          0
  symmetry         :          0          0          0          0
  vbounds          :          0          0          0          0
Propagator Timings :  TotalTime  SetupTime   Presolve  Propagate    ResProp    SB-Prop
  dualfix          :       0.00       0.00       0.00       0.00       0.00       0.00
  genvbounds       :       0.00       0.00       0.00       0.00       0.00       0.00
  nlobbt           :       0.00       0.00       0.00       0.00       0.00       0.00
  obbt             :      15.76       0.00       0.00      15.76       0.00       0.00
  probing          :       0.00       0.00       0.00       0.00       0.00       0.00
  pseudoobj        :       0.00       0.00       0.00       0.00       0.00       0.00
  redcost          :       0.01       0.00       0.00       0.01       0.00       0.00
  rootredcost      :       0.00       0.00       0.00       0.00       0.00       0.00
  symmetry         :       0.00       0.00       0.00       0.00       0.00       0.00
  vbounds          :       0.00       0.00       0.00       0.00       0.00       0.00
Conflict Analysis  :       Time      Calls    Success    DomReds  Conflicts   Literals    Reconvs ReconvLits   Dualrays   Nonzeros   LP Iters   (pool size: [--,--])
  propagation      :       0.00          0          0          -          0        0.0          0        0.0          -          -          -
  infeasible LP    :       0.00          0          0          -          0        0.0          0        0.0          0        0.0          0
  bound exceed. LP :       0.00          0          0          -          0        0.0          0        0.0          0        0.0          0
  strong branching :       0.00          0          0          -          0        0.0          0        0.0          -          -          0
  pseudo solution  :       0.00          0          0          -          0        0.0          0        0.0          -          -          -
  applied globally :       0.00          -          -          0          0        0.0          -          -          0          -          -
  applied locally  :          -          -          -          0          0        0.0          -          -          0          -          -
Gen. Resolution CA :       Time      Calls    Success  Conflicts  LargeCoef  LongConfs    Length
  propagation      :       0.00          0          0          0          0          0       0.0
Separators         :   ExecTime  SetupTime      Calls  RootCalls    Cutoffs    DomReds  FoundCuts ViaPoolAdd  DirectAdd    Applied ViaPoolApp  DirectApp      Conss
  cut pool         :       0.00          -          0          0          -          -          0          0          -          -          -          -          -    (maximal pool size:          0)
  aggregation      :       0.00       0.00          0          0          0          0          0          0          0          0          0          0          0
  > cmir           :          -          -          -          -          -          -          -          0          0          0          0          0          -
  > flowcover      :          -          -          -          -          -          -          -          0          0          0          0          0          -
  > knapsackcover  :          -          -          -          -          -          -          -          0          0          0          0          0          -
  cgmip            :       0.00       0.00          0          0          0          0          0          0          0          0          0          0          0
  clique           :       0.00       0.00          0          0          0          0          0          0          0          0          0          0          0
  closecuts        :       0.00       0.00          0          0          0          0          0          0          0          0          0          0          0
  convexproj       :       0.00       0.00          0          0          0          0          0          0          0          0          0          0          0
  disjunctive      :       0.00       0.00          0          0          0          0          0          0          0          0          0          0          0
  eccuts           :       0.00       0.00          0          0          0          0          0          0          0          0          0          0          0
  flower           :       0.00       0.00        189        189          0          0          0          0          0          0          0          0          0
  gauge            :       0.00       0.00          0          0          0          0          0          0          0          0          0          0          0
  gomory           :       0.00       0.00          0          0          0          0          0          0          0          0          0          0          0
  > gomorymi       :          -          -          -          -          -          -          -          0          0          0          0          0          -
  > strongcg       :          -          -          -          -          -          -          -          0          0          0          0          0          -
  impliedbounds    :       0.00       0.00          0          0          0          0          0          0          0          0          0          0          0
  interminor       :       0.00       0.00          0          0          0          0          0          0          0          0          0          0          0
  intobj           :       0.00       0.00          0          0          0          0          0          0          0          0          0          0          0
  lagromory        :       0.00       0.00          0          0          0          0          0          0          0          0          0          0          0
  mcf              :       0.00       0.00          0          0          0          0          0          0          0          0          0          0          0
  minor            :       0.15       0.00        189        189          0          0      21190          0      21190       6342          0       6342          0
  mixing           :       0.00       0.00        189        189          0          0          0          0          0          0          0          0          0
  oddcycle         :       0.00       0.00          0          0          0          0          0          0          0          0          0          0          0
  rapidlearning    :       0.00       0.00          0          0          0          0          0          0          0          0          0          0          0
  rlt              :       0.00       0.00         10         10          0          0          0          0          0          0          0          0          0
  zerohalf         :       0.00       0.00          0          0          0          0          0          0          0          0          0          0          0
Cutselectors       :   ExecTime  SetupTime      Calls  RootCalls   Selected     Forced   Filtered  RootSelec   RootForc   RootFilt 
  hybrid           :       0.04       0.00        189        189      11054          0      19257      11054          0      19257
  ensemble         :       0.00       0.00          0          0          0          0          0          0          0          0
  dynamic          :       0.00       0.00          0          0          0          0          0          0          0          0
Pricers            :   ExecTime  SetupTime      Calls       Vars
  problem variables:       0.00          -          0          0
Branching Rules    :   ExecTime  SetupTime   BranchLP  BranchExt   BranchPS    Cutoffs    DomReds       Cuts      Conss   Children
  allfullstrong    :       0.00       0.00          0          0          0          0          0          0          0          0
  cloud            :       0.00       0.00          0          0          0          0          0          0          0          0
  distribution     :       0.00       0.00          0          0          0          0          0          0          0          0
  fullstrong       :       0.00       0.00          0          0          0          0          0          0          0          0
  gomory           :       0.00       0.00          0          0          0          0          0          0          0          0
  inference        :       0.00       0.00          0          0          0          0          0          0          0          0
  leastinf         :       0.00       0.00          0          0          0          0          0          0          0          0
  lookahead        :       0.00       0.00          0          0          0          0          0          0          0          0
  mostinf          :       0.00       0.00          0          0          0          0          0          0          0          0
  multaggr         :       0.00       0.00          0          0          0          0          0          0          0          0
  nodereopt        :       0.00       0.00          0          0          0          0          0          0          0          0
  pscost           :       0.00       0.00          0          0          0          0          0          0          0          0
  random           :       0.00       0.00          0          0          0          0          0          0          0          0
  relpscost        :       0.00       0.00          0          0          0          0          0          0          0          0
  vanillafullstrong:       0.00       0.00          0          0          0          0          0          0          0          0
Primal Heuristics  :   ExecTime  SetupTime      Calls      Found       Best
  LP solutions     :       0.00          -          -          0          0
  relax solutions  :       0.00          -          -          0          0
  pseudo solutions :       0.00          -          -          0          0
  strong branching :       0.00          -          -          0          0
  actconsdiving    :       0.00       0.00          0          0          0
  adaptivediving   :       0.00       0.00          0          0          0
  alns             :       0.03       0.00          1          0          0
  bound            :       0.00       0.00          0          0          0
  clique           :       0.00       0.00          0          0          0
  coefdiving       :       0.00       0.00          0          0          0
  completesol      :       0.00       0.00          0          0          0
  conflictdiving   :       0.00       0.00          0          0          0
  crossover        :       0.00       0.00          0          0          0
  dins             :       0.00       0.00          0          0          0
  distributiondivin:       0.00       0.00          0          0          0
  dks              :       0.00       0.00          0          0          0
  dps              :       0.00       0.00          0          0          0
  dualval          :       0.00       0.00          0          0          0
  farkasdiving     :       0.00       0.00          0          0          0
  feaspump         :       0.00       0.00          0          0          0
  fixandinfer      :       0.00       0.00          0          0          0
  fracdiving       :       0.00       0.00          0          0          0
  gins             :       0.00       0.00          0          0          0
  guideddiving     :       0.00       0.00          0          0          0
  indicator        :       0.00       0.00          0          0          0
  indicatordiving  :       0.00       0.00          0          0          0
  intdiving        :       0.00       0.00          0          0          0
  intshifting      :       0.00       0.00          0          0          0
  linesearchdiving :       0.00       0.00          0          0          0
  localbranching   :       0.00       0.00          0          0          0
  locks            :       0.00       0.00          0          0          0
  lpface           :       0.00       0.00          0          0          0
  mpec             :       0.00       0.00          0          0          0
  multistart       :       0.00       0.00          0          0          0
  mutation         :       0.00       0.00          0          0          0
  nlpdiving        :       0.00       0.00          0          0          0
  objpscostdiving  :       0.00       0.00          0          0          0
  octane           :       0.00       0.00          0          0          0
  ofins            :       0.00       0.00          0          0          0
  oneopt           :       0.01       0.00          0          0          0
  padm             :       0.00       0.00          0          0          0
  proximity        :       0.00       0.00          0          0          0
  pscostdiving     :       0.00       0.00          0          0          0
  randrounding     :       0.01       0.00          0          0          0
  rens             :       0.00       0.00          0          0          0
  reoptsols        :       0.00       0.00          0          0          0
  repair           :       0.00       0.00          0          0          0
  rins             :       0.00       0.00          0          0          0
  rootsoldiving    :       0.00       0.00          0          0          0
  rounding         :       0.00       0.00          0          0          0
  scheduler        :       0.00       0.00          0          0          0
  shiftandpropagate:       0.00       0.00          0          0          0
  shifting         :       0.00       0.00          0          0          0
  simplerounding   :       0.00       0.00          0          0          0
  subnlp           :       0.00       0.00          0          0          0
  trivial          :       0.00       0.00          2          0          0
  trivialnegation  :       0.00       0.00          0          0          0
  trustregion      :       0.00       0.00          0          0          0
  trysol           :       0.00       0.00          0          0          0
  twoopt           :       0.00       0.00          0          0          0
  undercover       :       0.06       0.00          1          0          0
  vbounds          :       0.00       0.00          0          0          0
  veclendiving     :       0.00       0.00          0          0          0
  zeroobj          :       0.00       0.00          0          0          0
  zirounding       :       0.00       0.00          0          0          0
  other solutions  :          -          -          -          0          -
LNS (Scheduler)    :      Calls  SetupTime  SolveTime SolveNodes       Sols       Best       Exp3    Exp3-IX  EpsGreedy        UCB TgtFixRate  Opt  Inf Node Stal  Sol  Usr Othr Actv
  zeroobjective    :          0       0.00       0.00          0          0          0    0.00000    1.00000   -1.00000    1.00000      0.900    0    0    0    0    0    0    0    1
  rens             :          0       0.00       0.00          0          0          0    0.00000    0.00000   -1.00000    1.00000      0.900    0    0    0    0    0    0    0    0
  rins             :          0       0.00       0.00          0          0          0    0.00000    0.00000   -1.00000    1.00000      0.900    0    0    0    0    0    0    0    0
  mutation         :          0       0.00       0.00          0          0          0    0.00000    0.00000   -1.00000    1.00000      0.900    0    0    0    0    0    0    0    0
  localbranching   :          0       0.00       0.00          0          0          0    0.00000    0.00000   -1.00000    1.00000      0.900    0    0    0    0    0    0    0    0
  crossover        :          0       0.00       0.00          0          0          0    0.00000    0.00000   -1.00000    1.00000      0.900    0    0    0    0    0    0    0    0
  proximity        :          0       0.00       0.00          0          0          0    0.00000    0.00000   -1.00000    1.00000      0.900    0    0    0    0    0    0    0    0
  dins             :          0       0.00       0.00          0          0          0    0.00000    0.00000   -1.00000    1.00000      0.900    0    0    0    0    0    0    0    0
  trustregion      :          0       0.00       0.00          0          0          0    0.00000    0.00000   -1.00000    1.00000      0.900    0    0    0    0    0    0    0    0
Expressions        :   #IntEval  IntEvalTi   #RevProp  RevPropTi    DomReds    Cutoffs  #Estimate  EstimTime  Branching  #Simplify SimplifyTi Simplified
  pow              :       8262       0.00       1316       0.00        550          0      82896       0.02        615       2011       0.00         27
  prod             :       1405       0.00        227       0.00         33          3     131594       0.04       1456       2128       0.00         28
  sum              :       4460       0.00       2194       0.00        337          0        331       0.00          0       1116       0.01        258
...